
     RDKit          3D

 32 34  0  0  0  0  0  0  0  0999 V2000
   -3.1192    2.3062   -0.3208 C   0  0  0  0  0  0  0  0  0  0  0  0
   -3.0292    0.8273   -0.2561 C   0  0  0  0  0  0  0  0  0  0  0  0
   -3.9054    0.0211   -0.9254 N   0  0  0  0  0  0  0  0  0  0  0  0
   -3.5821   -1.2166   -0.6701 O   0  0  0  0  0  0  0  0  0  0  0  0
   -2.5445   -1.2687    0.1280 C   0  0  0  0  0  0  0  0  0  0  0  0
   -1.9533   -2.5493    0.5912 C   0  0  0  0  0  0  0  0  0  0  0  0
   -2.1268    0.0341    0.4416 C   0  0  0  0  0  0  0  0  0  0  0  0
   -1.0143    0.4498    1.2925 C   0  0  0  0  0  0  0  0  0  0  0  0
    0.1649    0.9041    0.6188 N   0  0  0  0  0  0  0  0  0  0  0  0
    0.4891    2.2298    0.2170 C   0  0  0  0  0  0  0  0  0  0  0  0
   -0.1593    3.2888    0.3558 O   0  0  0  0  0  0  0  0  0  0  0  0
    1.8110    2.2291   -0.4516 C   0  0  0  0  0  0  0  0  0  0  0  0
    2.4097    3.2234   -0.9335 O   0  0  0  0  0  0  0  0  0  0  0  0
    2.2300    0.8345   -0.4122 C   0  0  0  0  0  0  0  0  0  0  0  0
    3.4055    0.2822   -0.9032 C   0  0  0  0  0  0  0  0  0  0  0  0
    3.6546   -1.0676   -0.7812 C   0  0  0  0  0  0  0  0  0  0  0  0
    4.8762   -1.6226   -1.2944 C   0  0  0  0  0  0  0  0  0  0  0  0
    5.8648   -2.0856   -1.7100 N   0  0  0  0  0  0  0  0  0  0  0  0
    2.7035   -1.8446   -0.1594 C   0  0  0  0  0  0  0  0  0  0  0  0
    1.5403   -1.2834    0.3234 C   0  0  0  0  0  0  0  0  0  0  0  0
    1.2663    0.0766    0.2116 C   0  0  0  0  0  0  0  0  0  0  0  0
   -2.4569    2.6472   -1.1350 H   0  0  0  0  0  0  0  0  0  0  0  0
   -2.8355    2.7262    0.6735 H   0  0  0  0  0  0  0  0  0  0  0  0
   -4.1778    2.6248   -0.5025 H   0  0  0  0  0  0  0  0  0  0  0  0
   -1.1555   -2.9321   -0.0595 H   0  0  0  0  0  0  0  0  0  0  0  0
   -2.7369   -3.3412    0.7071 H   0  0  0  0  0  0  0  0  0  0  0  0
   -1.5232   -2.4507    1.6215 H   0  0  0  0  0  0  0  0  0  0  0  0
   -0.6920   -0.3688    1.9881 H   0  0  0  0  0  0  0  0  0  0  0  0
   -1.2947    1.2848    1.9948 H   0  0  0  0  0  0  0  0  0  0  0  0
    4.1429    0.9072   -1.3892 H   0  0  0  0  0  0  0  0  0  0  0  0
    2.9025   -2.9116   -0.0638 H   0  0  0  0  0  0  0  0  0  0  0  0
    0.8456   -1.9543    0.8029 H   0  0  0  0  0  0  0  0  0  0  0  0
  1  2  1  0
  2  3  2  0
  3  4  1  0
  4  5  1  0
  5  6  1  0
  5  7  2  0
  7  8  1  0
  8  9  1  0
  9 10  1  0
 10 11  2  0
 10 12  1  0
 12 13  2  0
 12 14  1  0
 14 15  2  0
 15 16  1  0
 16 17  1  0
 17 18  3  0
 16 19  2  0
 19 20  1  0
 20 21  2  0
  7  2  1  0
 21  9  1  0
 21 14  1  0
  1 22  1  0
  1 23  1  0
  1 24  1  0
  6 25  1  0
  6 26  1  0
  6 27  1  0
  8 28  1  0
  8 29  1  0
 15 30  1  0
 19 31  1  0
 20 32  1  0
M  END
$$$$
